@<TRIPOS>MOLECULE
49736240_1_1|ligdecs|mol2|1|dock4
   48    50     0     0     0
SMALL
USER_CHARGES

@<TRIPOS>ATOM
      1 C1          3.7331   -2.4582  -33.5092 C.ar      1 <0>        -0.1500
      2 C2          3.6893   -2.3000  -32.1241 C.ar      1 <0>        -0.1500
      3 C3          4.9107   -2.1861  -34.2054 C.ar      1 <0>        -0.1500
      4 C4         12.9699   -7.3840  -31.2755 C.ar      1 <0>        -0.1500
      5 C5         12.5505   -6.0527  -31.3625 C.ar      1 <0>        -0.1500
      6 C6          4.8232   -1.8694  -31.4352 C.ar      1 <0>        -0.1500
      7 C7         14.0620   -5.6496  -33.2173 C.ar      1 <0>        -0.1500
      8 C8         14.4722   -6.9710  -33.1245 C.ar      1 <0>        -0.1435
      9 C9          6.0447   -1.7556  -33.5166 C.ar      1 <0>        -0.1435
     10 C10        13.9350   -7.8322  -32.1656 C.ar      1 <0>         0.1170
     11 C11        13.0924   -5.1911  -32.3262 C.ar      1 <0>        -0.0090
     12 C12         6.0009   -1.5973  -32.1314 C.ar      1 <0>         0.1770
     13 C13        14.2259  -10.2153  -31.4958 C.2       1 <0>         0.5690
     14 C14         9.5907   -2.3953  -34.0311 C.2       1 <0>         0.5690
     15 C15        15.4900   -7.6575  -33.9750 C.3       1 <0>         0.1435
     16 C16        15.4968   -9.0745  -33.3917 C.3       1 <0>         0.3001
     17 C17        15.0017  -11.4645  -31.8413 C.3       1 <0>         0.0610
     18 C18         7.2915   -1.4713  -34.3031 C.3       1 <0>         0.4436
     19 C19        10.3171   -3.7159  -34.0154 C.3       1 <0>         0.4167
     20 N1         14.5187   -9.1107  -32.2840 N.am      1 <0>        -0.4771
     21 N2          8.2304   -2.5683  -34.2437 N.am      1 <0>        -0.7301
     22 N3         11.7656   -3.4810  -33.9296 N.pl3     1 <0>        -0.9137
     23 O1         13.4117  -10.2479  -30.5728 O.2       1 <0>        -0.5700
     24 O2         10.1507   -1.3140  -33.8712 O.2       1 <0>        -0.5700
     25 O3         11.5563   -3.3119  -31.3676 O.2       1 <0>        -0.6500
     26 O4         13.7286   -2.6813  -32.4667 O.2       1 <0>        -0.6500
     27 S1         12.5485   -3.5334  -32.4114 S.o2      1 <0>         1.4470
     28 Cl1         7.3837   -1.0667  -31.2450 Cl        1 <0>        -0.1770
     29 H1          2.8503   -2.7944  -34.0454 H         1 <0>         0.1500
     30 H2          2.7726   -2.5131  -31.5821 H         1 <0>         0.1500
     31 H3          4.9342   -2.3132  -35.2847 H         1 <0>         0.1500
     32 H4         12.5301   -8.0215  -30.5186 H         1 <0>         0.1500
     33 H5         11.7946   -5.6912  -30.6692 H         1 <0>         0.1500
     34 H6          4.7730   -1.7522  -30.3556 H         1 <0>         0.1500
     35 H7         14.4887   -4.9921  -33.9682 H         1 <0>         0.1500
     36 H8         15.1815   -7.6632  -35.0249 H         1 <0>         0.0000
     37 H9         16.4699   -7.1823  -33.8720 H         1 <0>         0.0000
     38 H10        15.2123   -9.8181  -34.1445 H         1 <0>         0.0000
     39 H11        16.4861   -9.3431  -33.0047 H         1 <0>         0.0000
     40 H12        15.9185  -11.4809  -31.2632 H         1 <0>         0.0000
     41 H13        15.2293  -11.4563  -32.9016 H         1 <0>         0.0000
     42 H14        14.3959  -12.3322  -31.6047 H         1 <0>         0.0000
     43 H15         7.0507   -1.2902  -35.3564 H         1 <0>         0.0000
     44 H16         7.7981   -0.5763  -33.9269 H         1 <0>         0.0000
     45 H17         9.9957   -4.3030  -33.1501 H         1 <0>         0.0000
     46 H18        10.0970   -4.2712  -34.9318 H         1 <0>         0.0000
     47 H19         7.8770   -3.5132  -34.3634 H         1 <0>         0.3700
     48 H20        12.3085   -3.7010  -34.7736 H         1 <0>         0.4200
@<TRIPOS>BOND
     1    1    2 ar
     2    1    3 ar
     3    2    6 ar
     4    3    9 ar
     5    4    5 ar
     6    4   10 ar
     7    5   11 ar
     8    6   12 ar
     9    7    8 ar
    10    7   11 ar
    11    8   10 ar
    12    8   15 1
    13    9   12 ar
    14    9   18 1
    15   10   20 1
    16   11   27 1
    17   12   28 1
    18   13   17 1
    19   13   20 am
    20   13   23 2
    21   14   19 1
    22   14   21 am
    23   14   24 2
    24   15   16 1
    25   16   20 1
    26   18   21 1
    27   19   22 1
    28   22   27 1
    29   25   27 2
    30   26   27 2
    31    1   29 1
    32    2   30 1
    33    3   31 1
    34    4   32 1
    35    5   33 1
    36    6   34 1
    37    7   35 1
    38   15   36 1
    39   15   37 1
    40   16   38 1
    41   16   39 1
    42   17   40 1
    43   17   41 1
    44   17   42 1
    45   18   43 1
    46   18   44 1
    47   19   45 1
    48   19   46 1
    49   21   47 1
    50   22   48 1
