@<TRIPOS>MOLECULE
49736240_1_1
   48    50     0     0     0
SMALL
USER_CHARGES

@<TRIPOS>ATOM
      1 C1         -0.4912   -3.2223    9.2035 C.ar      1 <0>        -0.1500
      2 C2          0.6752   -3.4986    9.9168 C.ar      1 <0>        -0.1500
      3 C3         -0.4361   -3.0341    7.8225 C.ar      1 <0>        -0.1500
      4 C4         -2.1236   -1.5279    1.9086 C.ar      1 <0>        -0.1500
      5 C5         -1.5813   -0.2510    2.0853 C.ar      1 <0>        -0.1500
      6 C6          1.8967   -3.5866    9.2491 C.ar      1 <0>        -0.1500
      7 C7          0.6717   -1.1503    2.0314 C.ar      1 <0>        -0.1500
      8 C8          0.1258   -2.4130    1.8563 C.ar      1 <0>        -0.1435
      9 C9          0.7854   -3.1221    7.1547 C.ar      1 <0>        -0.1435
     10 C10        -1.2560   -2.6044    1.7952 C.ar      1 <0>         0.1170
     11 C11        -0.1936   -0.0629    2.1465 C.ar      1 <0>        -0.0090
     12 C12         1.9518   -3.3984    7.8680 C.ar      1 <0>         0.1770
     13 C13        -2.8137   -4.5290    1.5097 C.2       1 <0>         0.5690
     14 C14         0.5502   -0.4726    5.2159 C.2       1 <0>         0.5690
     15 C15         0.8686   -3.7006    1.7121 C.3       1 <0>         0.1435
     16 C16        -0.2692   -4.7147    1.5530 C.3       1 <0>         0.3001
     17 C17        -2.8349   -6.0273    1.3185 C.3       1 <0>         0.0610
     18 C18         0.8021   -2.9110    5.6684 C.3       1 <0>         0.4436
     19 C19         1.3758    0.7284    4.8312 C.3       1 <0>         0.4167
     20 N1         -1.5461   -3.9727    1.6137 N.am      1 <0>        -0.4771
     21 N2          1.3324   -1.6147    5.3121 N.am      1 <0>        -0.7301
     22 N3          0.5468    1.6729    4.0687 N.pl3     1 <0>        -0.9137
     23 O1         -3.8786   -3.9131    1.5599 O.2       1 <0>        -0.5700
     24 O2         -0.6604   -0.4242    5.4169 O.2       1 <0>        -0.5700
     25 O3          1.8061    1.5823    1.8232 O.2       1 <0>        -0.6500
     26 O4         -0.5371    2.4935    1.8813 O.2       1 <0>        -0.6500
     27 S1          0.4549    1.5439    2.3671 S.o2      1 <0>         1.4470
     28 Cl1         3.4811   -3.5150    7.0763 Cl        1 <0>        -0.1770
     29 H1         -1.4424   -3.1547    9.7235 H         1 <0>         0.1500
     30 H2          0.6318   -3.6463   10.9919 H         1 <0>         0.1500
     31 H3         -1.3510   -2.8198    7.2762 H         1 <0>         0.1500
     32 H4         -3.2003   -1.6365    1.8662 H         1 <0>         0.1500
     33 H5         -2.2528    0.5997    2.1756 H         1 <0>         0.1500
     34 H6          2.7963   -3.8038    9.8194 H         1 <0>         0.1500
     35 H7          1.7480   -1.0172    2.0768 H         1 <0>         0.1500
     36 H8          1.5105   -3.6838    0.8260 H         1 <0>         0.0000
     37 H9          1.4638   -3.9105    2.6056 H         1 <0>         0.0000
     38 H10        -0.2057   -5.2394    0.5932 H         1 <0>         0.0000
     39 H11        -0.2520   -5.4639    2.3524 H         1 <0>         0.0000
     40 H12        -2.8665   -6.5060    2.2906 H         1 <0>         0.0000
     41 H13        -1.9403   -6.3273    0.7839 H         1 <0>         0.0000
     42 H14        -3.7126   -6.2965    0.7414 H         1 <0>         0.0000
     43 H15         1.4165   -3.6734    5.1770 H         1 <0>         0.0000
     44 H16        -0.2068   -2.9867    5.2493 H         1 <0>         0.0000
     45 H17         1.7489    1.2232    5.7327 H         1 <0>         0.0000
     46 H18         2.2224    0.4142    4.2138 H         1 <0>         0.0000
     47 H19         2.3273   -1.5356    5.1227 H         1 <0>         0.3700
     48 H20        -0.2427    2.0908    4.5761 H         1 <0>         0.4200
@<TRIPOS>BOND
     1    1    2 ar
     2    1    3 ar
     3    2    6 ar
     4    3    9 ar
     5    4    5 ar
     6    4   10 ar
     7    5   11 ar
     8    6   12 ar
     9    7    8 ar
    10    7   11 ar
    11    8   10 ar
    12    8   15 1
    13    9   12 ar
    14    9   18 1
    15   10   20 1
    16   11   27 1
    17   12   28 1
    18   13   17 1
    19   13   20 am
    20   13   23 2
    21   14   19 1
    22   14   21 am
    23   14   24 2
    24   15   16 1
    25   16   20 1
    26   18   21 1
    27   19   22 1
    28   22   27 1
    29   25   27 2
    30   26   27 2
    31    1   29 1
    32    2   30 1
    33    3   31 1
    34    4   32 1
    35    5   33 1
    36    6   34 1
    37    7   35 1
    38   15   36 1
    39   15   37 1
    40   16   38 1
    41   16   39 1
    42   17   40 1
    43   17   41 1
    44   17   42 1
    45   18   43 1
    46   18   44 1
    47   19   45 1
    48   19   46 1
    49   21   47 1
    50   22   48 1
