@<TRIPOS>MOLECULE
49736240_1_1|ligdecs|mol2|1|dock4
   48    50     0     0     0
SMALL
USER_CHARGES

@<TRIPOS>ATOM
      1 C1         -1.1469    7.0101   -0.3331 C.ar      1 <0>        -0.1500
      2 C2         -0.7612    7.4852    0.9202 C.ar      1 <0>        -0.1500
      3 C3         -0.1941    6.4738   -1.1992 C.ar      1 <0>        -0.1500
      4 C4          4.0618   -1.6263    0.3393 C.ar      1 <0>        -0.1500
      5 C5          3.6034   -0.3065    0.2780 C.ar      1 <0>        -0.1500
      6 C6          0.5775    7.4243    1.3074 C.ar      1 <0>        -0.1500
      7 C7          1.3892   -0.9937    0.9936 C.ar      1 <0>        -0.1500
      8 C8          1.8517   -2.2997    1.0521 C.ar      1 <0>        -0.1435
      9 C9          1.1446    6.4127   -0.8121 C.ar      1 <0>        -0.1435
     10 C10         3.1725   -2.6172    0.7291 C.ar      1 <0>         0.1170
     11 C11         2.2767    0.0082    0.6026 C.ar      1 <0>        -0.0090
     12 C12         1.5304    6.8879    0.4413 C.ar      1 <0>         0.1770
     13 C13         4.5761   -4.6746    0.6321 C.2       1 <0>         0.5690
     14 C14         1.4506    3.5528   -2.5183 C.2       1 <0>         0.5690
     15 C15         1.0723   -3.5121    1.4436 C.3       1 <0>         0.1435
     16 C16         2.1171   -4.6253    1.3118 C.3       1 <0>         0.3001
     17 C17         4.5765   -6.1305    1.0348 C.3       1 <0>         0.0610
     18 C18         2.1391    5.8302   -1.7742 C.3       1 <0>         0.4436
     19 C19         1.7056    2.1014   -2.2020 C.3       1 <0>         0.4167
     20 N1          3.3836   -4.0047    0.8692 N.am      1 <0>        -0.4771
     21 N2          2.1898    4.3882   -1.6929 N.am      1 <0>        -0.7301
     22 N3          0.9499    1.7183   -1.0008 N.pl3     1 <0>        -0.9137
     23 O1          5.5922   -4.1863    0.1373 O.2       1 <0>        -0.5700
     24 O2          0.6835    3.9275   -3.4013 O.2       1 <0>        -0.5700
     25 O3          0.7406    1.8874    1.5612 O.2       1 <0>        -0.6500
     26 O4          2.9129    2.5180    0.4621 O.2       1 <0>        -0.6500
     27 S1          1.7328    1.6659    0.5174 S.o2      1 <0>         1.4470
     28 Cl1         3.1771    6.8289    0.9551 Cl        1 <0>        -0.1770
     29 H1         -2.1895    7.0568   -0.6341 H         1 <0>         0.1500
     30 H2         -1.5034    7.9017    1.5949 H         1 <0>         0.1500
     31 H3         -0.5055    6.1058   -2.1735 H         1 <0>         0.1500
     32 H4          5.0930   -1.8334    0.0813 H         1 <0>         0.1500
     33 H5          4.2925    0.4778   -0.0268 H         1 <0>         0.1500
     34 H6          0.8617    7.7978    2.2880 H         1 <0>         0.1500
     35 H7          0.3596   -0.7624    1.2479 H         1 <0>         0.1500
     36 H8          0.7112   -3.4282    2.4732 H         1 <0>         0.0000
     37 H9          0.2329   -3.6742    0.7612 H         1 <0>         0.0000
     38 H10         2.2829   -5.1332    2.2684 H         1 <0>         0.0000
     39 H11         1.8103   -5.3768    0.5759 H         1 <0>         0.0000
     40 H12         3.8704   -6.6683    0.4126 H         1 <0>         0.0000
     41 H13         4.2892   -6.2080    2.0777 H         1 <0>         0.0000
     42 H14         5.5744   -6.5330    0.9002 H         1 <0>         0.0000
     43 H15         1.8838    6.1011   -2.8046 H         1 <0>         0.0000
     44 H16         3.1464    6.2122   -1.5777 H         1 <0>         0.0000
     45 H17         1.3851    1.4791   -3.0427 H         1 <0>         0.0000
     46 H18         2.7727    1.9432   -2.0205 H         1 <0>         0.0000
     47 H19         2.7968    3.9650   -0.9969 H         1 <0>         0.3700
     48 H20        -0.0618    1.8952   -1.0295 H         1 <0>         0.4200
@<TRIPOS>BOND
     1    1    2 ar
     2    1    3 ar
     3    2    6 ar
     4    3    9 ar
     5    4    5 ar
     6    4   10 ar
     7    5   11 ar
     8    6   12 ar
     9    7    8 ar
    10    7   11 ar
    11    8   10 ar
    12    8   15 1
    13    9   12 ar
    14    9   18 1
    15   10   20 1
    16   11   27 1
    17   12   28 1
    18   13   17 1
    19   13   20 am
    20   13   23 2
    21   14   19 1
    22   14   21 am
    23   14   24 2
    24   15   16 1
    25   16   20 1
    26   18   21 1
    27   19   22 1
    28   22   27 1
    29   25   27 2
    30   26   27 2
    31    1   29 1
    32    2   30 1
    33    3   31 1
    34    4   32 1
    35    5   33 1
    36    6   34 1
    37    7   35 1
    38   15   36 1
    39   15   37 1
    40   16   38 1
    41   16   39 1
    42   17   40 1
    43   17   41 1
    44   17   42 1
    45   18   43 1
    46   18   44 1
    47   19   45 1
    48   19   46 1
    49   21   47 1
    50   22   48 1
